api/Rede_CAI_teste_sem_trafos_Ajustada_VLN.Txt

SYMMETRICAL COMPONENT VOLTAGES BY BUS (for 3-phase buses)

Bus   Mag:   V1 (kV)    p.u.     V2 (kV)   %V2/V1    V0 (kV)    %V0/V1

3259     29.35     0.5777   0.004578     0.0156 3.305E-009 1.126E-008
2645     4.586     0.5756   0.001478    0.03224 0.0008635   0.01883
3256     4.588     0.5758   0.001455    0.03171  0.000835    0.0182
2221     4.587     0.5757    0.00147    0.03205 0.0008476   0.01848
3257     2.287      0.287  0.0004048     0.0177 7.497E-005  0.003279
927      2.267     0.2846  0.0004014     0.0177 7.304E-005  0.003221
1972     2.287      0.287  0.0004045    0.01769 7.815E-005  0.003418
13       2.286      0.287  0.0004125    0.01804 7.193E-005  0.003146
436      2.286     0.2869   0.000416     0.0182 6.949E-005   0.00304
1100     2.286      0.287  0.0003953    0.01729 8.171E-005  0.003574
2922     4.581      0.575   0.000898     0.0196 0.0002402  0.005242
3258     4.583     0.5752  0.0008902    0.01942 0.0002323   0.00507
2648     4.585     0.5754   0.001496    0.03262 0.0008844   0.01929
2223     4.587     0.5757   0.001481    0.03229 0.0008571   0.01869
928      2.203     0.2765    0.00039     0.0177 7.096E-005  0.003221
1973     2.286      0.287  0.0004043    0.01768 8.172E-005  0.003574
1101     2.286     0.2869  0.0003846    0.01683 8.999E-005  0.003937
2924      4.58     0.5748  0.0009063    0.01979 0.0002485  0.005427
2647      4.58     0.5748   0.001558    0.03402 0.0009601   0.02096
2222     4.585     0.5754   0.001522    0.03321 0.0008924   0.01946
929      2.197     0.2758   0.000389     0.0177 7.078E-005  0.003221
1975     2.286      0.287  0.0004039    0.01767 8.688E-005    0.0038
12       2.286     0.2869  0.0004337    0.01898 6.742E-005   0.00295
434      2.284     0.2867  0.0004472    0.01957 6.311E-005  0.002763
1103     2.285     0.2868  0.0003695    0.01617 0.0001027  0.004494
2923     4.574     0.5741   0.000937    0.02049   0.00028  0.006122
2646     4.579     0.5747   0.001572    0.03433 0.0009765   0.02132
2227     4.584     0.5754   0.001526     0.0333 0.0008958   0.01954
931      2.102     0.2639  0.0003722     0.0177 6.772E-005  0.003221
1974     2.286     0.2869  0.0004036    0.01766 0.0001066  0.004662
1102     2.283     0.2866  0.0003146    0.01378 0.0001547  0.006774
2926     4.573      0.574  0.0009411    0.02058 0.0002842  0.006213
2649     4.578     0.5745    0.00159    0.03474 0.0009987   0.02182
2226     4.582     0.5751   0.001574    0.03435 0.0009376   0.02046
930      1.756     0.2204  0.0003109     0.0177 5.654E-005   0.00322
1978     2.286     0.2869  0.0004037    0.01766 0.0001081  0.004727
9        2.285     0.2868  0.0004549    0.01991 6.943E-005  0.003039
432      2.283     0.2865  0.0004784    0.02096 7.176E-005  0.003143
1106     2.283     0.2865  0.0003038    0.01331 0.0001656  0.007255
2925     4.571     0.5737   0.000955    0.02089 0.0002986  0.006531
2835     4.578     0.5745   0.001591    0.03476 0.0009997   0.02184
2225      4.58     0.5748   0.001629    0.03558 0.0009868   0.02155
934      1.691     0.2122  0.0002994     0.0177 5.445E-005   0.00322
1977     2.285     0.2868  0.0004051    0.01773 0.0001312  0.005742
1105      2.28     0.2862  0.0002417     0.0106 0.0002314   0.01015
3029     4.571     0.5737  0.0009554     0.0209  0.000299  0.006541
2224     4.579     0.5747   0.001649    0.03602  0.001004   0.02194
933       1.27     0.1594  0.0002248     0.0177 4.087E-005  0.003218
1976     2.285     0.2867   0.000409     0.0179 0.0001586  0.006941
7        2.284     0.2866  0.0004876    0.02135 8.372E-005  0.003666
431       2.28     0.2862  0.0005265    0.02309 0.0001043  0.004572
1104     2.278     0.2859  0.0001764   0.007747 0.0003082   0.01353
2833     4.577     0.5745   0.001592    0.03478  0.001001   0.02186
2228     4.577     0.5745   0.001674    0.03658  0.001027   0.02244
932     0.7972     0.1001  0.0001411     0.0177 2.562E-005  0.003214
1980     2.284     0.2867  0.0004109    0.01799 0.0001683  0.007369
1108     2.277     0.2857  0.0001564   0.006872 0.0003354   0.01473
3034     4.571     0.5737  0.0009557    0.02091 0.0002994   0.00655
2832     4.577     0.5745   0.001599    0.03494  0.001015   0.02218
2823     4.577     0.5745   0.001592    0.03478  0.001001   0.02186
2285     4.577     0.5745   0.001675     0.0366  0.001028   0.02246
936     0.6315    0.07926  0.0001118     0.0177 2.027E-005   0.00321
1979     2.284     0.2866   0.000416    0.01822 0.0001894  0.008295
5        2.282     0.2864  0.0005246    0.02299 0.0001098  0.004812
428      2.278     0.2859  0.0005811    0.02551 0.0001519  0.006671
1107     2.274     0.2855  0.0001232   0.005419 0.0003946   0.01735
3033     4.571     0.5737  0.0009557    0.02091 0.0002994   0.00655
3031      4.57     0.5736   0.000961    0.02103 0.0003084  0.006749
2831     4.576     0.5744    0.00161    0.03518  0.001035   0.02263
935      0.274    0.03439  4.849E-005     0.0177 8.73E-006  0.003186
1981     2.283     0.2866  0.0004199    0.01839 0.0002028   0.00888
4        2.282     0.2864  0.0005376    0.02356 0.0001204  0.005277
425      2.277     0.2857  0.0006003    0.02637 0.0001698  0.007457
1109     2.273     0.2853  0.0001141   0.005021 0.0004308   0.01895
3032     4.571     0.5737  0.0009557    0.02091 0.0002994   0.00655
3017      4.57     0.5736   0.000961    0.02103 0.0003084  0.006749
3016      4.57     0.5736  0.0009613    0.02104 0.0003088  0.006758
2830     4.575     0.5743    0.00162     0.0354  0.001055   0.02306
2292     4.577     0.5745   0.001676    0.03661  0.001029   0.02247
938     0.1174    0.01473  2.075E-005    0.01768 3.647E-006  0.003107
1998     2.283     0.2866    0.00042    0.01839 0.0002031  0.008896
1160     2.273     0.2853   0.000114   0.005018 0.0004316   0.01899
3015     4.569     0.5734  0.0009675    0.02118 0.0003195  0.006994
2829     4.574     0.5741   0.001638    0.03581  0.001091   0.02386
2291     4.577     0.5745   0.001681    0.03673  0.001034   0.02259
2286     4.577     0.5745   0.001676    0.03661  0.001029   0.02247
1016    0.1116      0.014  1.972E-005    0.01768 3.456E-006  0.003098
14       2.281     0.2863  0.0005521     0.0242 0.0001326  0.005815
426      2.275     0.2856  0.0006245    0.02744 0.0001926  0.008467
3014     4.568     0.5733   0.000974    0.02133 0.0003307  0.007241
3013     4.569     0.5734  0.0009675    0.02118 0.0003195  0.006994
2828     4.573      0.574   0.001649    0.03606  0.001112   0.02432
2290     4.576     0.5744   0.001703    0.03721  0.001055   0.02305
2283     4.577     0.5745   0.001676    0.03661  0.001029   0.02247
2282     4.577     0.5745   0.001676    0.03661  0.001029   0.02247
2000     2.283     0.2866  0.0004201     0.0184 0.0002034  0.008908
1158     2.273     0.2853  0.0001139   0.005013 0.0004323   0.01902
3011     4.568     0.5733   0.000974    0.02133 0.0003307  0.007241
3009     4.567     0.5732  0.0009757    0.02136 0.0003335  0.007303
3012     4.569     0.5734  0.0009675    0.02118 0.0003195  0.006994
2827     4.573     0.5739   0.001656    0.03622  0.001126   0.02464
2294     4.576     0.5743   0.001712    0.03742  0.001064   0.02326
1014    0.1072    0.01346  1.896E-005    0.01768 3.31E-006  0.003086
1999     2.283     0.2866  0.0004201     0.0184 0.0002034  0.008908
2003     2.283     0.2866  0.0004209    0.01843 0.0002076  0.009093
40       2.281     0.2863  0.0005523    0.02421  0.000133  0.005829
30       2.281     0.2863  0.0005521     0.0242 0.0001326  0.005815
572      2.275     0.2855  0.0006328    0.02782 0.0002057  0.009044
540      2.275     0.2856  0.0006245    0.02744 0.0001926  0.008467
1157     2.273     0.2853  0.0001139   0.005013 0.0004323   0.01902
1162     2.273     0.2853  0.0001137   0.005001 0.0004385   0.01929
3010     4.568     0.5733   0.000974    0.02133 0.0003307  0.007241
3008     4.567     0.5732  0.0009798    0.02146 0.0003406  0.007459
2826     4.572     0.5739   0.001663    0.03638   0.00114   0.02494
2293     4.576     0.5743   0.001712    0.03742  0.001064   0.02326
2289     4.575     0.5742   0.001725    0.03771  0.001077   0.02355
1013   0.01999   0.002509  3.496E-006    0.01749 2.207E-007  0.001104
1010    0.1072    0.01346  1.896E-005    0.01768 3.31E-006  0.003086
2005     2.283     0.2866  0.0004213    0.01845 0.0002096  0.009181
39       2.281     0.2863  0.0005543     0.0243 0.0001358  0.005953
31       2.281     0.2863  0.0005521     0.0242 0.0001326  0.005815
580      2.275     0.2855  0.0006409    0.02818 0.0002186   0.00961
539      2.275     0.2856  0.0006245    0.02744 0.0001926  0.008467
1156     2.273     0.2853  0.0001139   0.005013 0.0004323   0.01902
1161     2.273     0.2853  0.0001137   0.005001 0.0004385   0.01929
1155     2.272     0.2852  0.0001145   0.005037 0.0004733   0.02083
2999     4.567     0.5733   0.000974    0.02133 0.0003307   0.00724
2825     4.572     0.5738   0.001673     0.0366  0.001159   0.02536
2288     4.574     0.5741   0.001744    0.03813  0.001096   0.02395
1012   0.01998   0.002508  3.233E-006    0.01618 5.322E-007  0.002663
1009  0.001016  0.0001275  1.776E-007    0.01749 3.548E-008  0.003494
2004     2.283     0.2866  0.0004213    0.01845 0.0002096  0.009181
2002     2.283     0.2866  0.0004226    0.01851 0.0002162  0.009468
38       2.281     0.2863  0.0005557    0.02436 0.0001378  0.006039
32       2.281     0.2863  0.0005521     0.0242 0.0001326  0.005815
579      2.274     0.2854  0.0006516    0.02866 0.0002357   0.01036
538      2.275     0.2856  0.0006245    0.02744 0.0001926  0.008467
1170     2.271     0.2851  0.0001183   0.005209 0.0005039   0.02219
2998     4.567     0.5733   0.000974    0.02133 0.0003307   0.00724
3004     4.565      0.573   0.000987    0.02162  0.000353  0.007731
2824     4.571     0.5737   0.001682     0.0368  0.001177   0.02574
2296     4.574      0.574   0.001758    0.03845   0.00111   0.02427
1011   0.01998   0.002508  2.959E-006    0.01481 8.706E-007  0.004358
2007     2.283     0.2866   0.000424    0.01857 0.0002233  0.009779
37       2.281     0.2863  0.0005559    0.02437 0.0001381  0.006053
33       2.281     0.2863  0.0005521     0.0242 0.0001326  0.005815
618      2.274     0.2854  0.0006519    0.02867 0.0002362   0.01039
1169     2.271     0.2851  0.0001183   0.005209 0.0005039   0.02219
1167     2.271     0.2851  0.0001187   0.005225 0.0005055   0.02226
2997     4.567     0.5733   0.000974    0.02133 0.0003307   0.00724
3003     4.564     0.5728  0.0009949     0.0218 0.0003666  0.008032
2805      4.57     0.5736    0.00169    0.03698  0.001193   0.02609
2295     4.574      0.574   0.001758    0.03845   0.00111   0.02427
2287     4.573      0.574   0.001772    0.03876  0.001124   0.02458
1008   0.01997   0.002507  2.775E-006    0.01389 1.103E-006  0.005523
2006     2.283     0.2866   0.000424    0.01857 0.0002233  0.009779
2009     2.283     0.2866   0.000425    0.01862  0.000228  0.009986
36       2.281     0.2863  0.0005599    0.02455 0.0001438  0.006307
617      2.274     0.2854  0.0006519    0.02867 0.0002362   0.01039
571      2.274     0.2854  0.0006575    0.02892 0.0002451   0.01078
2996     4.567     0.5733   0.000974    0.02132 0.0003307   0.00724
3002     4.563     0.5727   0.001004    0.02201 0.0003827  0.008388
2989     4.564     0.5728  0.0009948     0.0218 0.0003666  0.008032
2806      4.57     0.5735   0.001698    0.03716  0.001209   0.02645
2302     4.572     0.5739   0.001784    0.03903  0.001136   0.02484
1007   0.01997   0.002506  2.788E-006    0.01396 1.076E-006  0.005387
1006   0.01997   0.002507  2.677E-006     0.0134 1.234E-006   0.00618
2008     2.283     0.2866   0.000425    0.01862  0.000228  0.009986
2011     2.283     0.2865  0.0004254    0.01863 0.0002299   0.01007
35       2.281     0.2862  0.0005638    0.02472 0.0001496  0.006559
616      2.274     0.2854  0.0006519    0.02867 0.0002362   0.01039
570      2.273     0.2853  0.0006678    0.02938 0.0002617   0.01151
1110     2.271     0.2851  0.0001183   0.005209 0.0005039   0.02219
1112     2.271     0.2851  0.0001198   0.005274 0.0005091   0.02241
2958     4.567     0.5733   0.000974    0.02132 0.0003307   0.00724
2982     4.562     0.5726   0.001013     0.0222  0.000397  0.008702
2804     4.569     0.5735   0.001703    0.03727  0.001218   0.02665
2301     4.572     0.5739   0.001785    0.03904  0.001136   0.02485
2299     4.572     0.5739   0.001784    0.03903  0.001136   0.02484
992    0.01996   0.002506  2.788E-006    0.01396 1.069E-006  0.005356
950    0.01997   0.002506  2.791E-006    0.01398 1.073E-006  0.005372
1002   0.01997   0.002507  2.677E-006     0.0134 1.234E-006   0.00618
2010     2.283     0.2865  0.0004261    0.01866 0.0002299   0.01007
2001     2.283     0.2865  0.0004254    0.01863 0.0002314   0.01014
34        2.28     0.2862  0.0005697    0.02498 0.0001583  0.006942
559      2.273     0.2852  0.0006763    0.02976 0.0002752   0.01211
1113     2.271     0.2851  0.0001183   0.005209 0.0005039   0.02219
1111     2.271      0.285  0.0001245   0.005483 0.0005219   0.02298
2954     4.567     0.5733   0.000974    0.02132 0.0003307   0.00724
2808     4.569     0.5735   0.001707    0.03735  0.001222   0.02675
2298     4.572     0.5739   0.001784    0.03903  0.001136   0.02484
994    0.01997   0.002506   2.8E-006    0.01402 1.064E-006  0.005329
998    0.01997   0.002507  2.677E-006     0.0134 1.234E-006   0.00618
1004   0.01997   0.002507  2.669E-006    0.01336 1.246E-006  0.006236
2016     2.283     0.2865  0.0004254    0.01864 0.0002343   0.01026
60        2.28     0.2862  0.0005775    0.02533 0.0001699  0.007453
569      2.272     0.2852  0.0006869    0.03023 0.0002924   0.01287
1114     2.271     0.2851  0.0001183   0.005209 0.0005039   0.02219
1115      2.27     0.2849  0.0001338   0.005896 0.0005415   0.02385
2944     4.567     0.5732   0.000974    0.02132 0.0003307  0.007239
...
